# Name: YFW
# Created by ModelServer 0.9.12

# model_server_result.job_id: 3-9d0cBbavVZRYSBCAP0qg
# model_server_result.datetime_utc: 2025-06-10 10:58:59
# model_server_result.server_version: 0.9.12
# model_server_result.query_name: ligand
# model_server_result.source_id: pdb-bcif
# model_server_result.entry_id: 8fy8

# model_server_params.name: atom_site
# model_server_params.value: {"label_asym_id":"E","auth_seq_id":501}

# model_server_stats.io_time_ms: 126
# model_server_stats.parse_time_ms: 8
# model_server_stats.create_model_time_ms: 9
# model_server_stats.query_time_ms: 308
# model_server_stats.encode_time_ms: 0
# model_server_stats.element_count: 16

@<TRIPOS>MOLECULE
YFW
16 17 1
****
****

@<TRIPOS>ATOM
1 N 143.117 134.722 105.577 N.ar 1 YFW 0.000
2 C 143.867 133.154 99.507 C.3 1 YFW 0.000
3 O 142.994 134.050 100.179 O.3 1 YFW 0.000
4 C1 143.162 134.196 101.525 C.ar 1 YFW 0.000
5 N1 138.121 137.541 104.820 N.3 1 YFW 0.000
6 C2 144.146 133.518 102.232 C.ar 1 YFW 0.000
7 C3 144.225 133.648 103.607 C.ar 1 YFW 0.000
8 C4 143.303 134.461 104.247 C.ar 1 YFW 0.000
9 C5 142.060 135.574 105.720 C.ar 1 YFW 0.000
10 C6 141.545 135.893 104.500 C.ar 1 YFW 0.000
11 C7 140.421 136.836 104.193 C.3 1 YFW 0.000
12 C8 139.295 136.773 105.209 C.3 1 YFW 0.000
13 C9 138.099 137.780 103.384 C.3 1 YFW 0.000
14 C10 136.904 136.857 105.225 C.3 1 YFW 0.000
15 C11 142.321 135.169 103.537 C.ar 1 YFW 0.000
16 C12 142.256 135.029 102.160 C.ar 1 YFW 0.000
@<TRIPOS>BOND
1 1 8 ar
2 1 9 ar
3 2 3 1
4 3 4 1
5 4 16 ar
6 4 6 ar
7 5 13 1
8 5 12 1
9 5 14 1
10 6 7 ar
11 7 8 ar
12 8 15 ar
13 9 10 ar
14 10 15 ar
15 10 11 1
16 11 12 1
17 15 16 ar
@<TRIPOS>SUBSTRUCTURE
1 YFW 1
