# Name: 7LD
# Created by ModelServer 0.9.12

# model_server_result.job_id: c_TQ1gl3rkDQufqYEa_g3w
# model_server_result.datetime_utc: 2025-06-10 10:58:32
# model_server_result.server_version: 0.9.12
# model_server_result.query_name: ligand
# model_server_result.source_id: pdb-bcif
# model_server_result.entry_id: 8fyt

# model_server_params.name: atom_site
# model_server_params.value: {"label_asym_id":"E","auth_seq_id":501}

# model_server_stats.io_time_ms: 0
# model_server_stats.parse_time_ms: 13
# model_server_stats.create_model_time_ms: 11
# model_server_stats.query_time_ms: 445
# model_server_stats.encode_time_ms: 0
# model_server_stats.element_count: 24

@<TRIPOS>MOLECULE
7LD
24 27 1
****
****

@<TRIPOS>ATOM
1 N1 130.625 131.755 166.577 N.ar 1 7LD 0.000
2 N3 134.495 138.021 172.266 N.am 1 7LD 0.000
3 C4 129.811 131.665 168.988 C.ar 1 7LD 0.000
4 C5 130.051 132.250 170.222 C.ar 1 7LD 0.000
5 C6 131.797 133.663 169.309 C.ar 1 7LD 0.000
6 C7 132.188 133.328 166.862 C.ar 1 7LD 0.000
7 C8 131.597 132.509 165.938 C.ar 1 7LD 0.000
8 C10 132.877 135.734 170.146 C.2 1 7LD 0.000
9 C13 135.352 135.865 169.692 C.3 1 7LD 0.000
10 C15 133.274 134.365 166.844 C.3 1 7LD 0.000
11 C17 133.300 138.849 172.495 C.3 1 7LD 0.000
12 C20 135.994 139.038 173.963 C.3 1 7LD 0.000
13 N2 135.019 135.498 168.311 N.3 1 7LD 0.000
14 C12 136.244 135.018 167.644 C.3 1 7LD 0.000
15 C11 133.927 134.503 168.239 C.3 1 7LD 0.000
16 C3 131.548 133.071 168.089 C.ar 1 7LD 0.000
17 C1 130.582 132.094 167.907 C.ar 1 7LD 0.000
18 C2 131.032 133.244 170.409 C.ar 1 7LD 0.000
19 C9 132.863 134.692 169.313 C.2 1 7LD 0.000
20 C14 134.140 136.538 170.361 C.3 1 7LD 0.000
21 C16 134.386 136.746 171.851 C.2 1 7LD 0.000
22 O1 134.451 135.784 172.620 O.2 1 7LD 0.000
23 C19 135.804 138.644 172.520 C.3 1 7LD 0.000
24 C18 133.162 139.958 171.488 C.3 1 7LD 0.000
@<TRIPOS>BOND
1 1 7 ar
2 1 17 ar
3 2 11 1
4 2 21 1
5 2 23 1
6 3 17 ar
7 3 4 ar
8 4 18 ar
9 5 16 ar
10 5 19 1
11 5 18 ar
12 6 7 ar
13 6 10 1
14 6 16 ar
15 8 19 2
16 8 20 1
17 9 13 1
18 9 20 1
19 10 15 1
20 11 24 1
21 12 23 1
22 13 14 1
23 13 15 1
24 15 19 1
25 16 17 ar
26 20 21 1
27 21 22 2
@<TRIPOS>SUBSTRUCTURE
1 7LD 1
