# Name: RIW
# Created by ModelServer 0.9.12

# model_server_result.job_id: iubIATPJGoQZiKmL4Kriog
# model_server_result.datetime_utc: 2025-03-06 17:39:40
# model_server_result.server_version: 0.9.12
# model_server_result.query_name: ligand
# model_server_result.source_id: pdb-bcif
# model_server_result.entry_id: 5sry

# model_server_params.name: atom_site
# model_server_params.value: {"label_asym_id":"C","auth_seq_id":201}

# model_server_stats.io_time_ms: 75
# model_server_stats.parse_time_ms: 8
# model_server_stats.create_model_time_ms: 11
# model_server_stats.query_time_ms: 319
# model_server_stats.encode_time_ms: 1
# model_server_stats.element_count: 33

@<TRIPOS>MOLECULE
RIW
33 36 1
****
****

@<TRIPOS>ATOM
1 C18 -42.231 -31.098 1.462 C.3 1 RIW 0.000
2 C16 -43.343 -28.935 1.393 C.3 1 RIW 0.000
3 C17 -42.327 -29.824 0.649 C.3 1 RIW 0.000
4 C13 -45.195 -29.433 4.301 C.ar 1 RIW 0.000
5 C11 -43.981 -29.444 6.258 C.ar 1 RIW 0.000
6 C19 -43.423 -31.165 2.290 C.2 1 RIW 0.000
7 C02 -50.570 -28.951 4.800 C.ar 1 RIW 0.000
8 C03 -49.934 -29.050 3.559 C.ar 1 RIW 0.000
9 C04 -48.550 -29.177 3.483 C.ar 1 RIW 0.000
10 C05 -47.806 -29.189 4.689 C.ar 1 RIW 0.000
11 C06 -48.441 -29.077 5.906 C.ar 1 RIW 0.000
12 C07 -49.835 -28.965 5.970 C.ar 1 RIW 0.000
13 C09 -46.287 -29.242 6.367 C.ar 1 RIW 0.000
14 C21 -46.392 -29.294 5.010 C.ar 1 RIW 0.000
15 F01 -51.921 -28.851 4.870 F 1 RIW 0.000
16 N08 -47.516 -29.122 6.895 N.ar 1 RIW 0.000
17 N10 -45.077 -29.323 6.960 N.ar 1 RIW 0.000
18 N12 -44.030 -29.501 4.937 N.ar 1 RIW 0.000
19 N14 -45.262 -29.497 2.884 N.pl3 1 RIW 0.000
20 N15 -44.093 -29.825 2.217 N.am 1 RIW 0.000
21 O20 -43.798 -32.109 2.902 O.2 1 RIW 0.000
22 H181 -41.360 -31.070 2.095 H 1 RIW 0.000
23 H182 -42.192 -31.966 0.823 H 1 RIW 0.000
24 H161 -44.004 -28.430 0.700 H 1 RIW 0.000
25 H162 -42.842 -28.195 2.012 H 1 RIW 0.000
26 H171 -41.365 -29.335 0.594 H 1 RIW 0.000
27 H172 -42.691 -30.043 -0.343 H 1 RIW 0.000
28 H111 -43.035 -29.509 6.776 H 1 RIW 0.000
29 H031 -50.514 -29.051 2.655 H 1 RIW 0.000
30 H041 -48.045 -29.271 2.518 H 1 RIW 0.000
31 H071 -50.300 -28.875 6.936 H 1 RIW 0.000
32 H081 -47.698 -29.056 7.876 H 1 RIW 0.000
33 H141 -46.120 -29.333 2.413 H 1 RIW 0.000
@<TRIPOS>BOND
1 1 3 1
2 1 6 1
3 1 22 1
4 1 23 1
5 2 3 1
6 2 20 1
7 2 24 1
8 2 25 1
9 3 26 1
10 3 27 1
11 4 19 1
12 4 18 ar
13 4 14 ar
14 5 18 ar
15 5 17 ar
16 5 28 1
17 6 20 1
18 6 21 2
19 7 8 ar
20 7 15 1
21 7 12 ar
22 8 9 ar
23 8 29 1
24 9 10 ar
25 9 30 1
26 10 14 ar
27 10 11 ar
28 11 12 ar
29 11 16 ar
30 12 31 1
31 13 14 ar
32 13 16 ar
33 13 17 ar
34 16 32 1
35 19 20 1
36 19 33 1
@<TRIPOS>SUBSTRUCTURE
1 RIW 1
