# created with PyMOL 2.5.0
@<TRIPOS>MOLECULE
RIW
21 24 1                 
SMALL
USER_CHARGES
@<TRIPOS>ATOM
1	 C02	-50.570	-28.951	4.800	C.2	1	RIW1	0.000	
2	 C03	-49.934	-29.050	3.559	C.2	1	RIW1	0.000	
3	 C04	-48.550	-29.177	3.483	C.2	1	RIW1	0.000	
4	 C05	-47.806	-29.189	4.689	C.2	1	RIW1	0.000	
5	 C06	-48.441	-29.077	5.906	C.2	1	RIW1	0.000	
6	 C07	-49.835	-28.965	5.970	C.2	1	RIW1	0.000	
7	 N08	-47.516	-29.122	6.895	N.2	1	RIW1	0.000	
8	 C09	-46.287	-29.242	6.367	C.2	1	RIW1	0.000	
9	 N10	-45.077	-29.323	6.960	N.2	1	RIW1	0.000	
10	 C11	-43.981	-29.444	6.258	C.2	1	RIW1	0.000	
11	 N12	-44.030	-29.501	4.937	N.2	1	RIW1	0.000	
12	 C13	-45.195	-29.433	4.301	C.2	1	RIW1	0.000	
13	 N14	-45.262	-29.497	2.884	N.pl3	1	RIW1	0.000	
14	 N15	-44.093	-29.825	2.217	N.pl3	1	RIW1	0.000	
15	 C16	-43.343	-28.935	1.393	C.3	1	RIW1	0.000	
16	 C17	-42.327	-29.824	0.649	C.3	1	RIW1	0.000	
17	 C18	-42.231	-31.098	1.462	C.3	1	RIW1	0.000	
18	 C19	-43.423	-31.165	2.290	C.2	1	RIW1	0.000	
19	 O20	-43.798	-32.109	2.902	O.2	1	RIW1	0.000	
20	 C21	-46.392	-29.294	5.010	C.2	1	RIW1	0.000	
21	 F01	-51.921	-28.851	4.870	 F	1	RIW1	0.000	
@<TRIPOS>BOND
1 1 2 ar
2 1 6 ar
3 1 21 1
4 2 3 ar
5 3 4 ar
6 4 5 ar
7 4 20 ar
8 5 6 ar
9 5 7 ar
10 7 8 ar
11 8 9 ar
12 8 20 ar
13 9 10 ar
14 10 11 ar
15 11 12 ar
16 12 13 1
17 12 20 ar
18 13 14 1
19 14 15 1
20 15 16 1
21 16 17 1
22 17 18 1
23 14 18 1
24 18 19 2
@<TRIPOS>SUBSTRUCTURE
1	RIW1	1	GROUP	1 ****	RIW
